*HEADING
Barrette Pile Analysis - Linear Elastic
Recreated from hands-on-example
*NODE,NSET=Nall
1,0.000000,0.000000,-45.000000
2,0.250000,0.000000,-45.000000
3,0.500000,0.000000,-45.000000
4,0.750000,0.000000,-45.000000
5,1.000000,0.000000,-45.000000
6,1.250000,0.000000,-45.000000
7,1.500000,0.000000,-45.000000
8,1.750000,0.000000,-45.000000
9,2.000000,0.000000,-45.000000
10,2.250000,0.000000,-45.000000
11,2.500000,0.000000,-45.000000
12,2.750000,0.000000,-45.000000
13,3.000000,0.000000,-45.000000
14,3.250000,0.000000,-45.000000
15,3.500000,0.000000,-45.000000
16,3.750000,0.000000,-45.000000
17,4.000000,0.000000,-45.000000
18,4.250000,0.000000,-45.000000
19,4.500000,0.000000,-45.000000
20,4.750000,0.000000,-45.000000
** ... 13651 like lines cut
*NSET,NSET=Nbottom
1,
2,
3,
4,
5,
6,
7,
8,
9,
10,
11,
12,
13,
14,
15,
16,
17,
18,
19,
20,
** ... 421 like lines cut
*NSET,NSET=Ntop
13231,
13232,
13233,
13234,
13235,
13236,
13237,
13238,
13239,
13240,
13241,
13242,
13243,
13244,
13245,
13246,
13247,
13248,
13249,
13250,
** ... 421 like lines cut
*NSET,NSET=Nbarrette_top
13428,
13429,
13430,
13431,
13432,
13449,
13450,
13451,
13452,
13453,
13470,
13471,
13472,
13473,
13474
*NSET,NSET=Nleft
1,
22,
43,
64,
85,
106,
127,
148,
169,
190,
211,
232,
253,
274,
295,
316,
337,
358,
379,
400,
** ... 631 like lines cut
*NSET,NSET=Nright
21,
42,
63,
84,
105,
126,
147,
168,
189,
210,
231,
252,
273,
294,
315,
336,
357,
378,
399,
420,
** ... 631 like lines cut
*NSET,NSET=Nfront
1,
2,
3,
4,
5,
6,
7,
8,
9,
10,
11,
12,
13,
14,
15,
16,
17,
18,
19,
20,
** ... 631 like lines cut
*NSET,NSET=Nback
421,
422,
423,
424,
425,
426,
427,
428,
429,
430,
431,
432,
433,
434,
435,
436,
437,
438,
439,
440,
** ... 631 like lines cut
*ELEMENT,TYPE=C3D8,ELSET=EBARRETTE
8169,8997,8998,9019,9018,9438,9439,9460,9459
8170,8998,8999,9020,9019,9439,9440,9461,9460
8171,8999,9000,9021,9020,9440,9441,9462,9461
8172,9000,9001,9022,9021,9441,9442,9463,9462
8189,9018,9019,9040,9039,9459,9460,9481,9480
8190,9019,9020,9041,9040,9460,9461,9482,9481
8191,9020,9021,9042,9041,9461,9462,9483,9482
8192,9021,9022,9043,9042,9462,9463,9484,9483
8209,9039,9040,9061,9060,9480,9481,9502,9501
8210,9040,9041,9062,9061,9481,9482,9503,9502
8211,9041,9042,9063,9062,9482,9483,9504,9503
8212,9042,9043,9064,9063,9483,9484,9505,9504
8229,9060,9061,9082,9081,9501,9502,9523,9522
8230,9061,9062,9083,9082,9502,9503,9524,9523
8231,9062,9063,9084,9083,9503,9504,9525,9524
8232,9063,9064,9085,9084,9504,9505,9526,9525
8569,9438,9439,9460,9459,9879,9880,9901,9900
8570,9439,9440,9461,9460,9880,9881,9902,9901
8571,9440,9441,9462,9461,9881,9882,9903,9902
8572,9441,9442,9463,9462,9882,9883,9904,9903
** ... 140 like lines cut
*ELEMENT,TYPE=C3D8,ELSET=ESOIL
1,1,2,23,22,442,443,464,463
2,2,3,24,23,443,444,465,464
3,3,4,25,24,444,445,466,465
4,4,5,26,25,445,446,467,466
5,5,6,27,26,446,447,468,467
6,6,7,28,27,447,448,469,468
7,7,8,29,28,448,449,470,469
8,8,9,30,29,449,450,471,470
9,9,10,31,30,450,451,472,471
10,10,11,32,31,451,452,473,472
11,11,12,33,32,452,453,474,473
12,12,13,34,33,453,454,475,474
13,13,14,35,34,454,455,476,475
14,14,15,36,35,455,456,477,476
15,15,16,37,36,456,457,478,477
16,16,17,38,37,457,458,479,478
17,17,18,39,38,458,459,480,479
18,18,19,40,39,459,460,481,480
19,19,20,41,40,460,461,482,481
20,20,21,42,41,461,462,483,482
** ... 11820 like lines cut
*MATERIAL,NAME=CONCRETE
*ELASTIC
30000000.0,0.15
*DENSITY
24.0
*MATERIAL,NAME=SOIL
*ELASTIC
10000,0.3
*DENSITY
18.0
*SOLID SECTION,ELSET=EBARRETTE,MATERIAL=CONCRETE
*SOLID SECTION,ELSET=ESOIL,MATERIAL=SOIL
*SURFACE,TYPE=ELEMENT,NAME=Sbarrette_top
11769,S6
11770,S6
11771,S6
11772,S6
11789,S6
11790,S6
11791,S6
11792,S6
11809,S6
11810,S6
11811,S6
11812,S6
11829,S6
11830,S6
11831,S6
11832,S6
*BOUNDARY
Nbottom,1,3
Nleft,1,1
Nright,1,1
Nfront,2,2
Nback,2,2
*STEP
*STATIC
*DLOAD
Sbarrette_top,P,125.0
*NODE FILE
U
*EL FILE
S,E
*END STEP
