*HEADING
Barrette Pile Analysis - Linear Elastic
Recreated from hands-on-example
*NODE,NSET=Nall
1,0.000000,0.000000,-30.000000
2,1.000000,0.000000,-30.000000
3,2.000000,0.000000,-30.000000
4,3.000000,0.000000,-30.000000
5,4.000000,0.000000,-30.000000
6,5.000000,0.000000,-30.000000
7,6.000000,0.000000,-30.000000
8,7.000000,0.000000,-30.000000
9,8.000000,0.000000,-30.000000
10,9.000000,0.000000,-30.000000
11,10.000000,0.000000,-30.000000
12,11.000000,0.000000,-30.000000
13,12.000000,0.000000,-30.000000
14,13.000000,0.000000,-30.000000
15,14.000000,0.000000,-30.000000
16,15.000000,0.000000,-30.000000
17,16.000000,0.000000,-30.000000
18,17.000000,0.000000,-30.000000
19,18.000000,0.000000,-30.000000
20,19.000000,0.000000,-30.000000
** ... 9241 like lines cut
*NSET,NSET=Nbottom
1,
2,
3,
4,
5,
6,
7,
8,
9,
10,
11,
12,
13,
14,
15,
16,
17,
18,
19,
20,
** ... 421 like lines cut
*NSET,NSET=Ntop
8821,
8822,
8823,
8824,
8825,
8826,
8827,
8828,
8829,
8830,
8831,
8832,
8833,
8834,
8835,
8836,
8837,
8838,
8839,
8840,
** ... 421 like lines cut
*NSET,NSET=Nbarrette_top
9040,
9041,
9042
*NSET,NSET=Nleft
1,
22,
43,
64,
85,
106,
127,
148,
169,
190,
211,
232,
253,
274,
295,
316,
337,
358,
379,
400,
** ... 421 like lines cut
*NSET,NSET=Nright
21,
42,
63,
84,
105,
126,
147,
168,
189,
210,
231,
252,
273,
294,
315,
336,
357,
378,
399,
420,
** ... 421 like lines cut
*NSET,NSET=Nfront
1,
2,
3,
4,
5,
6,
7,
8,
9,
10,
11,
12,
13,
14,
15,
16,
17,
18,
19,
20,
** ... 421 like lines cut
*NSET,NSET=Nback
421,
422,
423,
424,
425,
426,
427,
428,
429,
430,
431,
432,
433,
434,
435,
436,
437,
438,
439,
440,
** ... 421 like lines cut
*ELEMENT,TYPE=C3D8,ELSET=EBARRETTE
5389,5931,5932,5953,5952,6372,6373,6394,6393
5390,5932,5933,5954,5953,6373,6374,6395,6394
5391,5933,5934,5955,5954,6374,6375,6396,6395
5392,5934,5935,5956,5955,6375,6376,6397,6396
5409,5952,5953,5974,5973,6393,6394,6415,6414
5410,5953,5954,5975,5974,6394,6395,6416,6415
5411,5954,5955,5976,5975,6395,6396,6417,6416
5412,5955,5956,5977,5976,6396,6397,6418,6417
5789,6372,6373,6394,6393,6813,6814,6835,6834
5790,6373,6374,6395,6394,6814,6815,6836,6835
5791,6374,6375,6396,6395,6815,6816,6837,6836
5792,6375,6376,6397,6396,6816,6817,6838,6837
5809,6393,6394,6415,6414,6834,6835,6856,6855
5810,6394,6395,6416,6415,6835,6836,6857,6856
5811,6395,6396,6417,6416,6836,6837,6858,6857
5812,6396,6397,6418,6417,6837,6838,6859,6858
6189,6813,6814,6835,6834,7254,7255,7276,7275
6190,6814,6815,6836,6835,7255,7256,7277,7276
6191,6815,6816,6837,6836,7256,7257,7278,7277
6192,6816,6817,6838,6837,7257,7258,7279,7278
** ... 36 like lines cut
*ELEMENT,TYPE=C3D8,ELSET=ESOIL
1,1,2,23,22,442,443,464,463
2,2,3,24,23,443,444,465,464
3,3,4,25,24,444,445,466,465
4,4,5,26,25,445,446,467,466
5,5,6,27,26,446,447,468,467
6,6,7,28,27,447,448,469,468
7,7,8,29,28,448,449,470,469
8,8,9,30,29,449,450,471,470
9,9,10,31,30,450,451,472,471
10,10,11,32,31,451,452,473,472
11,11,12,33,32,452,453,474,473
12,12,13,34,33,453,454,475,474
13,13,14,35,34,454,455,476,475
14,14,15,36,35,455,456,477,476
15,15,16,37,36,456,457,478,477
16,16,17,38,37,457,458,479,478
17,17,18,39,38,458,459,480,479
18,18,19,40,39,459,460,481,480
19,19,20,41,40,460,461,482,481
20,20,21,42,41,461,462,483,482
** ... 7924 like lines cut
*MATERIAL,NAME=CONCRETE
*ELASTIC
30000000.0,0.15
*DENSITY
24.0
*MATERIAL,NAME=SOIL
*ELASTIC
10000,0.3
*DENSITY
18.0
*SOLID SECTION,ELSET=EBARRETTE,MATERIAL=CONCRETE
*SOLID SECTION,ELSET=ESOIL,MATERIAL=SOIL
*SURFACE,TYPE=ELEMENT,NAME=Sbarrette_top
7789,S6
7790,S6
7791,S6
7792,S6
7809,S6
7810,S6
7811,S6
7812,S6
*BOUNDARY
Nbottom,1,3
Nleft,1,1
Nright,1,1
Nfront,2,2
Nback,2,2
*STEP,NAME=LOAD_100kN
*STATIC
*DLOAD
Sbarrette_top,P,22.22222222222222
*NODE FILE
U
*EL FILE
S,E
*END STEP
*STEP,NAME=LOAD_200kN
*STATIC
*DLOAD
Sbarrette_top,P,44.44444444444444
*NODE FILE
U
*EL FILE
S,E
*END STEP
*STEP,NAME=LOAD_500kN
*STATIC
*DLOAD
Sbarrette_top,P,111.11111111111111
*NODE FILE
U
*EL FILE
S,E
*END STEP
*STEP,NAME=LOAD_1000kN
*STATIC
*DLOAD
Sbarrette_top,P,222.22222222222223
*NODE FILE
U
*EL FILE
S,E
*END STEP
*STEP,NAME=LOAD_2000kN
*STATIC
*DLOAD
Sbarrette_top,P,444.44444444444446
*NODE FILE
U
*EL FILE
S,E
*END STEP
*STEP,NAME=LOAD_3000kN
*STATIC
*DLOAD
Sbarrette_top,P,666.6666666666666
*NODE FILE
U
*EL FILE
S,E
*END STEP
*STEP,NAME=LOAD_4000kN
*STATIC
*DLOAD
Sbarrette_top,P,888.8888888888889
*NODE FILE
U
*EL FILE
S,E
*END STEP
*STEP,NAME=LOAD_5000kN
*STATIC
*DLOAD
Sbarrette_top,P,1111.111111111111
*NODE FILE
U
*EL FILE
S,E
*END STEP
*STEP,NAME=LOAD_6000kN
*STATIC
*DLOAD
Sbarrette_top,P,1333.3333333333333
*NODE FILE
U
*EL FILE
S,E
*END STEP
*STEP,NAME=LOAD_7000kN
*STATIC
*DLOAD
Sbarrette_top,P,1555.5555555555557
*NODE FILE
U
*EL FILE
S,E
*END STEP
*STEP,NAME=LOAD_8000kN
*STATIC
*DLOAD
Sbarrette_top,P,1777.7777777777778
*NODE FILE
U
*EL FILE
S,E
*EL PRINT,ELSET=EBARRETTE
S,E
*EL PRINT,ELSET=ESOIL
S,E
*END STEP
