SUMMARY OF JOB INFORMATION
  STEP      INC     ATT  ITRS     TOT TIME     STEP TIME      INC TIME
     1          1     1     1  0.100000E+01  0.100000E+01  0.100000E+01
     2          1     1     1  0.200000E+01  0.100000E+01  0.100000E+01
     3          1     1     1  0.300000E+01  0.100000E+01  0.100000E+01
     4          1     1     1  0.400000E+01  0.100000E+01  0.100000E+01
     5          1     1     1  0.500000E+01  0.100000E+01  0.100000E+01
     6          1     1     1  0.600000E+01  0.100000E+01  0.100000E+01
     7          1     1     1  0.700000E+01  0.100000E+01  0.100000E+01
     8          1     1     1  0.800000E+01  0.100000E+01  0.100000E+01
     9          1     1     1  0.900000E+01  0.100000E+01  0.100000E+01
    10          1     1     1  0.100000E+02  0.100000E+01  0.100000E+01
    11          1     1     1  0.110000E+02  0.100000E+01  0.100000E+01
